CM G5RV Multiband Antenna
CM Converted from AO to 4nec2 format on 22-apr-02
CE
GW 1 31 0 -15.5448 0 0 15.5448 0 1.0262e-3
GE 0
EX 0 1 16 00 1.0 0.0
GN -1
FR 0 1 0 0 14.2
XQ
EN

